                                   MODFLOW 6
                U.S. GEOLOGICAL SURVEY MODULAR HYDROLOGIC MODEL
                        VERSION 6.4.1 Release 12/09/2022

   MODFLOW 6 compiled Dec 09 2022 18:18:37 with Intel(R) Fortran Intel(R) 64
   Compiler Classic for applications running on Intel(R) 64, Version 2021.7.0
                             Build 20220726_000000

This software has been approved for release by the U.S. Geological 
Survey (USGS). Although the software has been subjected to rigorous 
review, the USGS reserves the right to update the software as needed 
pursuant to further analysis and review. No warranty, expressed or 
implied, is made by the USGS or the U.S. Government as to the 
functionality of the software and related material nor shall the 
fact of release constitute any such warranty. Furthermore, the 
software is released on condition that neither the USGS nor the U.S. 
Government shall be held liable for any damages resulting from its 
authorized or unauthorized use. Also refer to the USGS Water 
Resources Software User Rights Notice for complete use, copyright, 
and distribution information.


As a work of the United States Government, this USGS product is 
in the public domain within the United States. You can copy, 
modify, distribute, and perform the work, even for commercial 
purposes, all without asking permission. Additionally, USGS 
waives copyright and related rights in the work worldwide 
through CC0 1.0 Universal Public Domain Dedication 
(https://creativecommons.org/publicdomain/zero/1.0/).

The following GNU Lesser General Public License (LGPL) libraries
are used in this USGS product:

    SPARSKIT version 2.0
      ilut, luson, and qsplit 
      (https://www-users.cse.umn.edu/~saad/software/SPARSKIT/)

    RCM - Reverse Cuthill McKee Ordering
      (https://people.math.sc.edu/Burkardt/f_src/rcm/rcm.html)

    BLAS - Basic Linear Algebra Subprograms Level 1
      (https://people.math.sc.edu/Burkardt/f_src/blas1_d/blas1_d.html)

    SPARSEKIT - Sparse Matrix Utility Package
      amux, dperm, dvperm, rperm, and cperm
      (https://people.sc.fsu.edu/~jburkardt/f77_src/sparsekit/sparsekit.html)

The following BSD-3 License libraries are used in this USGS product:

    Modern Fortran DAG Library
      Copyright (c) 2018, Jacob Williams
      All rights reserved.
      (https://github.com/jacobwilliams/daglib)

MODFLOW 6 compiler options: /Isrc\libmf6core.a.p /Isrc /I..\src
/Isrc\libmf6_external.a.p /MTd /nologo /warn:general /warn:truncated_source
/stand:f08 /Zi /traceback /O2 /fpe:0 /heap-arrays:0 /traceback /fpp
/Qdiag-disable:7416 /Qdiag-disable:7025 /Qdiag-disable:5268
/Fdsrc\libmf6core.a.p\Utilities_compilerversion.F90.pdb
/module:src\libmf6core.a.p
/Fosrc/libmf6core.a.p/Utilities_compilerversion.F90.obj /c

System command used to initiate simulation:
D:\mf6.4.1\bin\mf6.exe

MODFLOW was compiled using uniform precision.

Real Variables
  KIND: 8
  TINY (smallest non-zero value):    2.225074-308
  HUGE (largest value):    1.797693+308
  PRECISION: 15
  SIZE IN BITS: 64

Integer Variables
  KIND: 4
  HUGE (largest value): 2147483647
  SIZE IN BITS: 32

Long Integer Variables
  KIND: 8
  HUGE (largest value): 9223372036854775807
  SIZE IN BITS: 64

Logical Variables
  KIND: 4
  SIZE IN BITS: 32
 

 OPENED mfsim.nam
 FILE TYPE:NAM   UNIT 1001   STATUS:OLD                 
 FORMAT:FORMATTED              ACCESS:SEQUENTIAL          
 ACTION:READ                

 # File generated by Flopy version 3.3.7 on 08/27/2023 at 22:11:26.

 READING SIMULATION OPTIONS
 END OF SIMULATION OPTIONS

 READING SIMULATION TIMING

 OPENED second_case_base.tdis
 FILE TYPE:TDIS   UNIT 1002   STATUS:OLD                 
 FORMAT:FORMATTED              ACCESS:SEQUENTIAL          
 ACTION:READ                


 TDIS -- TEMPORAL DISCRETIZATION PACKAGE,
 VERSION 1 : 11/13/2014 - INPUT READ FROM UNIT 1002
 # File generated by Flopy version 3.3.7 on 08/27/2023 at 22:11:26.
 PROCESSING TDIS OPTIONS
    SIMULATION TIME UNIT IS SECONDS
 END OF TDIS OPTIONS
 PROCESSING TDIS DIMENSIONS
    1 STRESS PERIOD(S) IN SIMULATION
 END OF TDIS DIMENSIONS
 PROCESSING TDIS PERIODDATA


 STRESS PERIOD     LENGTH       TIME STEPS     MULTIPLIER FOR DELT
 ----------------------------------------------------------------------------
        1         1.000000          1                    1.000
 END OF TDIS PERIODDATA
 END OF SIMULATION TIMING

 READING SIMULATION MODELS
    GWF6 model SECOND_CASE_BASE will be created as model 1
 END OF SIMULATION MODELS

 READING SIMULATION EXCHANGES
 END OF SIMULATION EXCHANGES

 READING SOLUTIONGROUP

 Creating solution: SLN_1           

 OPENED second_case_base.ims
 FILE TYPE:IMS   UNIT 1013   STATUS:OLD                 
 FORMAT:FORMATTED              ACCESS:SEQUENTIAL          
 ACTION:READ                

 END OF SIMULATION SOLUTIONGROUP

PROCESSING MODEL CONNECTIONS

 IMS -- ITERATIVE MODEL SOLUTION PACKAGE, VERSION 6, 4/28/2017
         INPUT READ FROM UNIT 1013
 # File generated by Flopy version 3.3.7 on 08/27/2023 at 22:11:26.

 PROCESSING IMS OPTIONS
 COMPLEX OPTION:
 DEFAULT SOLVER INPUT VALUES REFLECT STRONGLY NONLINEAR MODEL
 END OF IMS OPTIONS

 PROCESSING IMS NONLINEAR
 END OF IMS NONLINEAR DATA
 **UNDER-RELAXATION WILL BE USED***
 
 ***IMS LINEAR SOLVER WILL BE USED***

 IMSLINEAR -- UNSTRUCTURED LINEAR SOLUTION PACKAGE, VERSION 8, 04/28/2017

 PROCESSING LINEAR DATA
 END OF LINEAR DATA
 
 An asymmetric matrix will be solved

 OUTER ITERATION CONVERGENCE CRITERION    (DVCLOSE) =    0.100000E-07
 MAXIMUM NUMBER OF OUTER ITERATIONS        (MXITER) = 100
 SOLVER PRINTOUT INDEX                     (IPRIMS) = 1
 NONLINEAR ITERATION METHOD            (NONLINMETH) = 3
 LINEAR SOLUTION METHOD                   (LINMETH) = 1
 UNDER-RELAXATION WEIGHT REDUCTION FACTOR   (THETA) =    0.800000E+00
 UNDER-RELAXATION WEIGHT INCREASE INCREMENT (KAPPA) =    0.100000E-03
 UNDER-RELAXATION PREVIOUS HISTORY FACTOR   (GAMMA) =    0.000000E+00
 UNDER-RELAXATION MOMENTUM TERM         (AMOMENTUM) =    0.000000E+00
 MAXIMUM NUMBER OF BACKTRACKS            (NUMTRACK) = 20
 BACKTRACKING TOLERANCE FACTOR               (BTOL) =    0.105000E+01
 BACKTRACKING REDUCTION FACTOR             (BREDUC) =    0.100000E+00
 BACKTRACKING RESIDUAL LIMIT              (RES_LIM) =    0.200000E-02

       SOLUTION BY THE BICONJUGATE-GRADIENT STABILIZED METHOD
 ------------------------------------------------------------------
 MAXIMUM OF 100 CALLS OF SOLUTION ROUTINE
 MAXIMUM OF 500 INTERNAL ITERATIONS PER CALL TO SOLUTION ROUTINE
 LINEAR ACCELERATION METHOD            = BCGS      
 MATRIX PRECONDITIONING TYPE           = INCOMPLETE LUT      
 MATRIX SCALING APPROACH               = NO SCALING          
 MATRIX REORDERING APPROACH            = ORIGINAL ORDERING        
 NUMBER OF ORTHOGONALIZATIONS          = 2
 HEAD CHANGE CRITERION FOR CLOSURE     =    0.10000E-07
 RESIDUAL CHANGE CRITERION FOR CLOSURE =    0.10000E+00
 RESIDUAL CONVERGENCE OPTION           = 0
 RESIDUAL CONVERGENCE NORM             = INFINITY NORM   
 RELAXATION FACTOR                     =    0.00000E+00
 NUMBER OF LEVELS                      =              5
 DROP TOLERANCE                        =    0.10000E-03


 
    Solving:  Stress period:     1    Time step:     1
 
1
                            STRESS PERIOD NO. 1, LENGTH =   1.000000    
                            -----------------------------------------------
                            NUMBER OF TIME STEPS = 1
                            MULTIPLIER FOR DELT =     1.000
                            INITIAL TIME STEP SIZE =   1.000000    

 SLN_1 OUTER ITERATION SUMMARY
 ----------------------------------------------------------------------------------------------------------------------------------------------------------------
                                OUTER      INNER  BACKTRACK  BACKTRACK        INCOMING        OUTGOING                    STEP   MAXIMUM CHANGE MODEL-(CELLID) OR
 OUTER ITERATION STEP       ITERATION  ITERATION       FLAG ITERATIONS        RESIDUAL        RESIDUAL  MAXIMUM CHANGE SUCCESS             MODEL-PACKAGE-(NUMBER)
 ----------------------------------------------------------------------------------------------------------------------------------------------------------------
 Backtracking                       1                     0          0  2.06103074E-02  2.06103074E-02                       *                                   
 Model                              1          2                                                        1.65703593E-02                                1_GWF-(1,2)
 Backtracking                       2                     0          0  2.06103074E-02  2.06103074E-02                       *                                   
 Model                              2          2                                                        1.65703593E-02                                1_GWF-(1,2)
 Backtracking                       3                     0          0  2.06103074E-02  2.06103074E-02                       *                                   
 Model                              3          2                                                        1.65703593E-02                                1_GWF-(1,2)
 Backtracking                       4                     0          0  2.06103074E-02  2.06103074E-02                       *                                   
 Model                              4          2                                                        1.65703593E-02                                1_GWF-(1,2)
 Backtracking                       5                     0          0  2.06103074E-02  2.06103074E-02                       *                                   
 Model                              5          2                                                        1.65703593E-02                                1_GWF-(1,2)
 Backtracking                       6                     0          0  2.06103074E-02  2.06103074E-02                       *                                   
 Model                              6          2                                                        1.65703593E-02                                1_GWF-(1,2)
 Backtracking                       7                     0          0  2.06103074E-02  2.06103074E-02                       *                                   
 Model                              7          2                                                        1.65703593E-02                                1_GWF-(1,2)
 Backtracking                       8                     0          0  2.06103074E-02  2.06103074E-02                       *                                   
 Model                              8          2                                                        1.65703593E-02                                1_GWF-(1,2)
 Backtracking                       9                     0          0  2.06103074E-02  2.06103074E-02                       *                                   
 Model                              9          2                                                        1.65703593E-02                                1_GWF-(1,2)
 Backtracking                      10                     0          0  2.06103074E-02  2.06103074E-02                       *                                   
 Model                             10          2                                                        1.65703593E-02                                1_GWF-(1,2)
 Backtracking                      11                     0          0  2.06103074E-02  2.06103074E-02                       *                                   
 Model                             11          2                                                        1.65703593E-02                                1_GWF-(1,2)
 Backtracking                      12                     0          0  2.06103074E-02  2.06103074E-02                       *                                   
 Model                             12          2                                                        1.65703593E-02                                1_GWF-(1,2)
 Backtracking                      13                     0          0  2.06103074E-02  2.06103074E-02                       *                                   
 Model                             13          2                                                        1.65703593E-02                                1_GWF-(1,2)
 Backtracking                      14                     0          0  2.06103074E-02  2.06103074E-02                       *                                   
 Model                             14          2                                                        1.65703593E-02                                1_GWF-(1,2)
 Backtracking                      15                     0          0  2.06103074E-02  2.06103074E-02                       *                                   
 Model                             15          2                                                        1.65703593E-02                                1_GWF-(1,2)
 Backtracking                      16                     0          0  2.06103074E-02  2.06103074E-02                       *                                   
 Model                             16          2                                                        1.65703593E-02                                1_GWF-(1,2)
 Backtracking                      17                     0          0  2.06103074E-02  2.06103074E-02                       *                                   
 Model                             17          2                                                        1.65703593E-02                                1_GWF-(1,2)
 Backtracking                      18                     0          0  2.06103074E-02  2.06103074E-02                       *                                   
 Model                             18          2                                                        1.65703593E-02                                1_GWF-(1,2)
 Backtracking                      19                     0          0  2.06103074E-02  2.06103074E-02                       *                                   
 Model                             19          2                                                        1.65703593E-02                                1_GWF-(1,2)
 Backtracking                      20                     0          0  2.06103074E-02  2.06103074E-02                       *                                   
 Model                             20          2                                                        1.65703593E-02                                1_GWF-(1,2)
 Backtracking                      21                     0          0  2.06103074E-02  2.06103074E-02                       *                                   
 Model                             21          2                                                        1.65703593E-02                                1_GWF-(1,2)
 Backtracking                      22                     0          0  2.06103074E-02  2.06103074E-02                       *                                   
 Model                             22          2                                                        1.65703593E-02                                1_GWF-(1,2)
 Backtracking                      23                     0          0  2.06103074E-02  2.06103074E-02                       *                                   
 Model                             23          2                                                        1.65703593E-02                                1_GWF-(1,2)
 Backtracking                      24                     0          0  2.06103074E-02  2.06103074E-02                       *                                   
 Model                             24          2                                                        1.65703593E-02                                1_GWF-(1,2)
 Backtracking                      25                     0          0  2.06103074E-02  2.06103074E-02                       *                                   
 Model                             25          2                                                        1.65703593E-02                                1_GWF-(1,2)
 Backtracking                      26                     0          0  2.06103074E-02  2.06103074E-02                       *                                   
 Model                             26          2                                                        1.65703593E-02                                1_GWF-(1,2)
 Backtracking                      27                     0          0  2.06103074E-02  2.06103074E-02                       *                                   
 Model                             27          2                                                        1.65703593E-02                                1_GWF-(1,2)
 Backtracking                      28                     0          0  2.06103074E-02  2.06103074E-02                       *                                   
 Model                             28          2                                                        1.65703593E-02                                1_GWF-(1,2)
 Backtracking                      29                     0          0  2.06103074E-02  2.06103074E-02                       *                                   
 Model                             29          2                                                        1.65703593E-02                                1_GWF-(1,2)
 Backtracking                      30                     0          0  2.06103074E-02  2.06103074E-02                       *                                   
 Model                             30          2                                                        1.65703593E-02                                1_GWF-(1,2)
 Backtracking                      31                     0          0  2.06103074E-02  2.06103074E-02                       *                                   
 Model                             31          2                                                        1.65703593E-02                                1_GWF-(1,2)
 Backtracking                      32                     0          0  2.04876081E-02  2.04876081E-02                       *                                   
 Model                             32          2                                                             1.4684209                                1_GWF-(1,2)
 Backtracking                      33                     0          0  1.22631838E-02  1.22631838E-02                       *                                   
 Model                             33          2                                                        1.09719606E-02                                1_GWF-(1,4)
 Backtracking                      34                     0          0  1.22631849E-02  1.22631849E-02                       *                                   
 Model                             34          2                                                        1.09719625E-02                                1_GWF-(1,4)
 Backtracking                      35                     0          0  1.22631849E-02  1.22631849E-02                       *                                   
 Model                             35          2                                                        1.09719625E-02                                1_GWF-(1,4)
 Backtracking                      36                     0          0  1.22631849E-02  1.22631849E-02                       *                                   
 Model                             36          2                                                        1.09719625E-02                                1_GWF-(1,4)
 Backtracking                      37                     0          0  1.22631849E-02  1.22631849E-02                       *                                   
 Model                             37          2                                                        1.09719625E-02                                1_GWF-(1,4)
 Backtracking                      38                     0          0  1.22631849E-02  1.22631849E-02                       *                                   
 Model                             38          2                                                        1.09719625E-02                                1_GWF-(1,4)
 Backtracking                      39                     0          0  1.22631849E-02  1.22631849E-02                       *                                   
 Model                             39          2                                                        1.09719625E-02                                1_GWF-(1,4)
 Backtracking                      40                     0          0  1.22631849E-02  1.22631849E-02                       *                                   
 Model                             40          2                                                        1.09719625E-02                                1_GWF-(1,4)
 Backtracking                      41                     0          0  1.22631849E-02  1.22631849E-02                       *                                   
 Model                             41          2                                                        1.09719625E-02                                1_GWF-(1,4)
 Backtracking                      42                     0          0  1.22631849E-02  1.22631849E-02                       *                                   
 Model                             42          2                                                        1.09719625E-02                                1_GWF-(1,4)
 Backtracking                      43                     0          0  1.22631849E-02  1.22631849E-02                       *                                   
 Model                             43          2                                                        1.09719625E-02                                1_GWF-(1,4)
 Backtracking                      44                     0          0  1.22631849E-02  1.22631849E-02                       *                                   
 Model                             44          2                                                        1.09719625E-02                                1_GWF-(1,4)
 Backtracking                      45                     0          0  1.22631849E-02  1.22631849E-02                       *                                   
 Model                             45          2                                                        1.09719625E-02                                1_GWF-(1,4)
 Backtracking                      46                     0          0  1.22631849E-02  1.22631849E-02                       *                                   
 Model                             46          2                                                        1.09719625E-02                                1_GWF-(1,4)
 Backtracking                      47                     0          0  1.22331716E-02  1.22331716E-02                       *                                   
 Model                             47          2                                                             1.4675413                                1_GWF-(1,4)
 Backtracking                      48                     0          0  5.47738513E-03  5.47738513E-03                       *                                   
 Model                             48          2                                                        5.47738471E-03                                1_GWF-(1,3)
 Backtracking                      49                     0          0  5.47738471E-03  5.47738471E-03                       *                                   
 Model                             49          2                                                        5.47738471E-03                                1_GWF-(1,3)
 Backtracking                      50                     0          0  5.47738471E-03  5.47738471E-03                       *                                   
 Model                             50          2                                                        5.47738471E-03                                1_GWF-(1,3)
 Backtracking                      51                     0          0  5.47738471E-03  5.47738471E-03                       *                                   
 Model                             51          2                                                        5.47738471E-03                                1_GWF-(1,3)
 Backtracking                      52                     0          0  5.47738471E-03  5.47738471E-03                       *                                   
 Model                             52          2                                                        5.47738471E-03                                1_GWF-(1,3)
 Backtracking                      53                     0          0  5.47738471E-03  5.47738471E-03                       *                                   
 Model                             53          2                                                        5.47738471E-03                                1_GWF-(1,3)
 Backtracking                      54                     0          0  5.47738471E-03  5.47738471E-03                       *                                   
 Model                             54          2                                                        5.47738471E-03                                1_GWF-(1,3)
 Backtracking                      55                     0          0  5.47738471E-03  5.47738471E-03                       *                                   
 Model                             55          2                                                        5.47738471E-03                                1_GWF-(1,3)
 Backtracking                      56                     0          0  5.47738471E-03  5.47738471E-03                       *                                   
 Model                             56          2                                                        5.47738471E-03                                1_GWF-(1,3)
 Backtracking                      57                     0          0  5.47738471E-03  5.47738471E-03                       *                                   
 Model                             57          2                                                        5.47738471E-03                                1_GWF-(1,3)
 Backtracking                      58                     0          0  5.47738471E-03  5.47738471E-03                       *                                   
 Model                             58          2                                                        5.47738471E-03                                1_GWF-(1,3)
 Backtracking                      59                     0          0  5.47738471E-03  5.47738471E-03                       *                                   
 Model                             59          2                                                        5.47738471E-03                                1_GWF-(1,3)
 Backtracking                      60                     0          0  5.47738471E-03  5.47738471E-03                       *                                   
 Model                             60          2                                                        5.47738471E-03                                1_GWF-(1,3)
 Backtracking                      61                     0          0  5.47738471E-03  5.47738471E-03                       *                                   
 Model                             61          2                                                        5.47738471E-03                                1_GWF-(1,3)
 Backtracking                      62                     0          0  5.47738471E-03  5.47738471E-03                       *                                   
 Model                             62          2                                                        5.47738471E-03                                1_GWF-(1,3)
 Backtracking                      63                     0          0  5.47738471E-03  5.47738471E-03                       *                                   
 Model                             63          2                                                        5.47738471E-03                                1_GWF-(1,3)
 Backtracking                      64                     0          0  5.47738471E-03  5.47738471E-03                       *                                   
 Model                             64          2                                                        5.47738471E-03                                1_GWF-(1,3)
 Backtracking                      65                     0          0  5.47738471E-03  5.47738471E-03                       *                                   
 Model                             65          2                                                        5.47738471E-03                                1_GWF-(1,3)
 Backtracking                      66                     0          0  5.47738471E-03  5.47738471E-03                       *                                   
 Model                             66          2                                                        5.47738471E-03                                1_GWF-(1,3)
 Backtracking                      67                     0          0  5.47738471E-03  5.47738471E-03                       *                                   
 Model                             67          2                                                        5.47738471E-03                                1_GWF-(1,3)
 Backtracking                      68                     0          0  5.47738471E-03  5.47738471E-03                       *                                   
 Model                             68          2                                                        5.47738471E-03                                1_GWF-(1,3)
 Backtracking                      69                     0          0  5.47738471E-03  5.47738471E-03                       *                                   
 Model                             69          2                                                        5.47738471E-03                                1_GWF-(1,3)
 Backtracking                      70                     0          0  5.47738471E-03  5.47738471E-03                       *                                   
 Model                             70          2                                                        5.47738471E-03                                1_GWF-(1,3)
 Backtracking                      71                     0          0  5.47738471E-03  5.47738471E-03                       *                                   
 Model                             71          2                                                        5.47738471E-03                                1_GWF-(1,3)
 Backtracking                      72                     0          0  5.47738471E-03  5.47738471E-03                       *                                   
 Model                             72          2                                                        5.47738471E-03                                1_GWF-(1,3)
 Backtracking                      73                     0          0  5.47738471E-03  5.47738471E-03                       *                                   
 Model                             73          2                                                        5.47738471E-03                                1_GWF-(1,3)
 Backtracking                      74                     0          0  5.47738471E-03  5.47738471E-03                       *                                   
 Model                             74          2                                                        5.47738471E-03                                1_GWF-(1,3)
 Backtracking                      75                     0          0  5.47738471E-03  5.47738471E-03                       *                                   
 Model                             75          2                                                        5.47738471E-03                                1_GWF-(1,3)
 Backtracking                      76                     0          0  5.47738471E-03  5.47738471E-03                       *                                   
 Model                             76          2                                                        5.47738471E-03                                1_GWF-(1,3)
 Backtracking                      77                     0          0  5.47738471E-03  5.47738471E-03                       *                                   
 Model                             77          2                                                        5.47738471E-03                                1_GWF-(1,3)
 Backtracking                      78                     0          0  5.47738471E-03  5.47738471E-03                       *                                   
 Model                             78          2                                                        5.47738471E-03                                1_GWF-(1,3)
 Backtracking                      79                     0          0  5.47738471E-03  5.47738471E-03                       *                                   
 Model                             79          2                                                        5.47738471E-03                                1_GWF-(1,3)
 Backtracking                      80                     0          0  5.47738471E-03  5.47738471E-03                       *                                   
 Model                             80          2                                                        5.47738471E-03                                1_GWF-(1,3)
 Backtracking                      81                     0          0  5.47738471E-03  5.47738471E-03                       *                                   
 Model                             81          2                                                        5.47738471E-03                                1_GWF-(1,3)
 Backtracking                      82                     0          0  5.47738471E-03  5.47738471E-03                       *                                   
 Model                             82          2                                                        5.47738471E-03                                1_GWF-(1,3)
 Backtracking                      83                     0          0  5.47738471E-03  5.47738471E-03                       *                                   
 Model                             83          2                                                        5.47738471E-03                                1_GWF-(1,3)
 Backtracking                      84                     0          0  5.47738471E-03  5.47738471E-03                       *                                   
 Model                             84          2                                                        5.47738471E-03                                1_GWF-(1,3)
 Backtracking                      85                     0          0  5.47738471E-03  5.47738471E-03                       *                                   
 Model                             85          2                                                        5.47738471E-03                                1_GWF-(1,3)
 Backtracking                      86                     0          0  5.47738471E-03  5.47738471E-03                       *                                   
 Model                             86          2                                                        5.47738471E-03                                1_GWF-(1,3)
 Backtracking                      87                     0          0  5.47738471E-03  5.47738471E-03                       *                                   
 Model                             87          2                                                        5.47738471E-03                                1_GWF-(1,3)
 Backtracking                      88                     0          0  5.47738471E-03  5.47738471E-03                       *                                   
 Model                             88          2                                                        5.47738471E-03                                1_GWF-(1,3)
 Backtracking                      89                     0          0  5.47738471E-03  5.47738471E-03                       *                                   
 Model                             89          2                                                        5.47738471E-03                                1_GWF-(1,3)
 Backtracking                      90                     0          0  5.47738471E-03  5.47738471E-03                       *                                   
 Model                             90          2                                                        5.47738471E-03                                1_GWF-(1,3)
 Backtracking                      91                     0          0  5.47738471E-03  5.47738471E-03                       *                                   
 Model                             91          2                                                        5.47738471E-03                                1_GWF-(1,3)
 Backtracking                      92                     0          0  5.47738471E-03  5.47738471E-03                       *                                   
 Model                             92          2                                                        5.47738471E-03                                1_GWF-(1,3)
 Backtracking                      93                     0          0  5.46316589E-03  5.46316589E-03                       *                                   
 Model                             93          2                                                             1.4659212                                1_GWF-(1,3)
 Backtracking                      94                     0          0  2.20226118E-06  2.20226118E-06                       *                                   
 Model                             94          3                                                        2.86639795E-04                                1_GWF-(1,4)
 Backtracking                      95                     0          0  6.28819515E-10  6.28819515E-10                       *                                   
 Model                             95          1                                                        2.98106873E-10       *                        1_GWF-(1,4)
 ----------------------------------------------------------------------------------------------------------------------------------------------------------------


 95 CALLS TO NUMERICAL SOLUTION IN TIME STEP 1 STRESS PERIOD 1
 190 TOTAL ITERATIONS

 MEMORY MANAGER TOTAL STORAGE BY DATA TYPE, IN KILOBYTES
 -------------------------------
                    ALLOCATED   
 DATA TYPE           MEMORY     
 -------------------------------
 Character        2.4330000     
 Logical          4.00000000E-02
 Integer          4.7080000     
 Real             5.8320000     
 -------------------------------
 Total            13.013000     
 -------------------------------


 
 Run end date and time (yyyy/mm/dd hh:mm:ss): 2023/08/27 22:11:26
 Elapsed run time:  0.086 Seconds

WARNING REPORT:

  1. NONLINEAR BLOCK VARIABLE 'OUTER_HCLOSE' IN FILE 'second_case_base.ims'
     WAS DEPRECATED IN VERSION 6.1.1. SETTING OUTER_DVCLOSE TO OUTER_HCLOSE
     VALUE.
  2. LINEAR BLOCK VARIABLE 'INNER_HCLOSE' IN FILE 'second_case_base.ims' WAS
     DEPRECATED IN VERSION 6.1.1. SETTING INNER_DVCLOSE TO INNER_HCLOSE VALUE.
 Normal termination of simulation.
